k# Packages
 &PACKAGES
 useCAL   = .TRUE.,
 useEXF   = .TRUE.,
#useRBCS  = .TRUE.,
 useGMRedi= .FALSE.,
 useKPP   = .FALSE.,
 useSBO   = .FALSE.,
#useMNC   = .TRUE.,
 useSeaice= .TRUE.,
# useGGL90=.TRUE.,
 useSALT_PlUME=.FALSE.,
# useDOWN_SLOPE=.TRUE.,
 useDiagnostics=.TRUE.,
 useProfiles=.FALSE.,
 useOBCS        = .TRUE.,
 useSHELFICE    = .TRUE.,
# useSMOOTH=.TRUE.,
#useGrdchk=.TRUE.,
#useLayers=.TRUE.,
#
#usePtracers=.TRUE.,
#useBBL=.TRUE.,
#usePTRACERS=.TRUE.,
 /
